Circuit: * C:\Users\Admin\Documents\GitHub\femtowatt-photodetector\sim\voltage_amp_vs_ota.asc


Date: Wed Jul 15 19:12:26 2020
Total elapsed time: 0.134 seconds.

tnom = 27
temp = 27
method = trap
totiter = 0
traniter = 0
tranpoints = 0
accept = 0
rejected = 0
matrix size = 5
fillins = 0
solver = Normal

